*NODE, NSET=Nall
       1,6.000000000000e+00,-1.469576000000e-15,1.200000000000e+01
       2,6.000000000000e+00,-1.469576000000e-15,0.000000000000e+00
       3,5.994806000000e+00,2.495910000000e-01,1.200000000000e+01
       4,5.979235000000e+00,4.987498000000e-01,1.200000000000e+01
       5,5.953312000000e+00,7.470453000000e-01,1.200000000000e+01
       6,5.917083000000e+00,9.940474000000e-01,1.200000000000e+01
       7,5.870610000000e+00,1.239329000000e+00,1.200000000000e+01
       8,5.813974000000e+00,1.482464000000e+00,1.200000000000e+01
       9,5.747274000000e+00,1.723034000000e+00,1.200000000000e+01
      10,5.670623000000e+00,1.960620000000e+00,1.200000000000e+01
      11,5.584156000000e+00,2.194813000000e+00,1.200000000000e+01
      12,5.488021000000e+00,2.425205000000e+00,1.200000000000e+01
      13,5.382386000000e+00,2.651399000000e+00,1.200000000000e+01
      14,5.267433000000e+00,2.873004000000e+00,1.200000000000e+01
      15,5.143361000000e+00,3.089634000000e+00,1.200000000000e+01
      16,5.010385000000e+00,3.300916000000e+00,1.200000000000e+01
      17,4.868735000000e+00,3.506483000000e+00,1.200000000000e+01
      18,4.718656000000e+00,3.705980000000e+00,1.200000000000e+01
      19,4.560408000000e+00,3.899061000000e+00,1.200000000000e+01
      20,4.394266000000e+00,4.085392000000e+00,1.200000000000e+01
** ... 22026 like lines cut
*ELEMENT, TYPE=S8R, ELSET=Eall
   351,      1,      3,    350,    199,   7400,   7751,   7750,   7598
   352,      3,      4,    351,    350,   7401,   7753,   7752,   7751
   353,      4,      5,    352,    351,   7402,   7755,   7754,   7753
   354,      5,      6,    353,    352,   7403,   7757,   7756,   7755
   355,      6,      7,    354,    353,   7404,   7759,   7758,   7757
   356,      7,      8,    355,    354,   7405,   7761,   7760,   7759
   357,      8,      9,    356,    355,   7406,   7763,   7762,   7761
   358,      9,     10,    357,    356,   7407,   7765,   7764,   7763
   359,     10,     11,    358,    357,   7408,   7767,   7766,   7765
   360,     11,     12,    359,    358,   7409,   7769,   7768,   7767
   361,     12,     13,    360,    359,   7410,   7771,   7770,   7769
   362,     13,     14,    361,    360,   7411,   7773,   7772,   7771
   363,     14,     15,    362,    361,   7412,   7775,   7774,   7773
   364,     15,     16,    363,    362,   7413,   7777,   7776,   7775
   365,     16,     17,    364,    363,   7414,   7779,   7778,   7777
   366,     17,     18,    365,    364,   7415,   7781,   7780,   7779
   367,     18,     19,    366,    365,   7416,   7783,   7782,   7781
   368,     19,     20,    367,    366,   7417,   7785,   7784,   7783
   369,     20,     21,    368,    367,   7418,   7787,   7786,   7785
   370,     21,     22,    369,    368,   7419,   7789,   7788,   7787
** ... 7228 like lines cut
** Names based on S8R
*ELSET,ELSET=S8R 
351, 
352, 
353, 
354, 
355, 
356, 
357, 
358, 
359, 
360, 
361, 
362, 
363, 
364, 
365, 
366, 
367, 
368, 
369, 
370, 
** ... 7228 like lines cut
** Names based on load
*NSET,NSET=load 
1, 
3, 
4, 
5, 
6, 
7, 
8, 
9, 
10, 
11, 
12, 
13, 
14, 
15, 
16, 
17, 
18, 
19, 
20, 
21, 
** ... 282 like lines cut
** Names based on fix
*NSET,NSET=fix 
2, 
200, 
201, 
202, 
203, 
204, 
205, 
206, 
207, 
208, 
209, 
210, 
211, 
212, 
213, 
214, 
215, 
216, 
217, 
218, 
** ... 282 like lines cut
** Surfaces based on fix
*SURFACE, NAME=fix
** Surfaces based on load
*SURFACE, NAME=load
** Surfaces based on all
*SURFACE, NAME=all
351, SPOS 
501, SPOS 
7448, SPOS 
7598, SPOS 
352, SPOS 
353, SPOS 
354, SPOS 
355, SPOS 
356, SPOS 
357, SPOS 
358, SPOS 
359, SPOS 
360, SPOS 
361, SPOS 
362, SPOS 
363, SPOS 
364, SPOS 
365, SPOS 
366, SPOS 
367, SPOS 
** ... 7228 like lines cut
** Surfaces based on S8R
*SURFACE, NAME=S8R

*MATERIAL,NAME=steel
*ELASTIC
2.9000E+07,0.28


*DENSITY
0.0
*EXPANSION
0.0


*SHELL SECTION,MATERIAL=steel,ELSET=Eall,,OFFSET=0
6.2500E-02

*BOUNDARY
fix,1,1,0
fix,2,2,0
fix,3,3,0

*BOUNDARY
load,1,1,0
load,2,2,0



*STEP
*BUCKLE
20
*CLOAD
load,3,-3.3112583E+00

*NODE FILE
U
*END STEP
